
OS:Version,
  {de24eaaf-d1df-4dc6-aa0d-2e2339cd5eae}, !- Handle
  3.9.0;                                  !- Version Identifier

OS:Output:Variable,
  {0bd10d61-2b97-47f8-ab0e-3f15ec06ed6a}, !- Handle
  Output Variable 1,                      !- Name
  ,                                       !- Key Value
  Baseboard Electricity Energy,           !- Variable Name
  Monthly;                                !- Reporting Frequency

OS:Output:Variable,
  {c68dc893-c9b6-46d4-8149-a41d29dcc8a7}, !- Handle
  Output Variable 2,                      !- Name
  ,                                       !- Key Value
  Boiler Electricity Energy,              !- Variable Name
  Monthly;                                !- Reporting Frequency

OS:Output:Variable,
  {df68dcf7-06fa-48bc-a016-af597f5ba0ad}, !- Handle
  Output Variable 3,                      !- Name
  ,                                       !- Key Value
  Boiler NaturalGas Energy,               !- Variable Name
  Monthly;                                !- Reporting Frequency

OS:Output:Variable,
  {5fb7bc2f-7f6a-47cb-981c-ab1afe74e6d6}, !- Handle
  Output Variable 4,                      !- Name
  ,                                       !- Key Value
  Chiller Electricity Energy,             !- Variable Name
  Monthly;                                !- Reporting Frequency

OS:Output:Variable,
  {4e906a98-ff88-40e6-b762-534551f754c9}, !- Handle
  Output Variable 5,                      !- Name
  ,                                       !- Key Value
  Chiller Heater System Cooling Electricity Energy, !- Variable Name
  Monthly;                                !- Reporting Frequency

OS:Output:Variable,
  {9ff2eec9-3714-4285-b9ad-583ac9fb9946}, !- Handle
  Output Variable 6,                      !- Name
  ,                                       !- Key Value
  Chiller Heater System Heating Electricity Energy, !- Variable Name
  Monthly;                                !- Reporting Frequency

OS:Output:Variable,
  {b3c714ab-b693-4930-93b5-23be6a439ca1}, !- Handle
  Output Variable 7,                      !- Name
  ,                                       !- Key Value
  Cooling Coil Electricity Energy,        !- Variable Name
  Monthly;                                !- Reporting Frequency

OS:Output:Variable,
  {a6c8baef-f234-46f4-a76e-4f4a5140378b}, !- Handle
  Output Variable 8,                      !- Name
  ,                                       !- Key Value
  Cooling Coil Water Heating Electricity Energy, !- Variable Name
  Monthly;                                !- Reporting Frequency

OS:Output:Variable,
  {78ab95dd-dea0-4176-a9d8-c5446188b6cc}, !- Handle
  Output Variable 9,                      !- Name
  ,                                       !- Key Value
  Cooling Tower Fan Electricity Energy,   !- Variable Name
  Monthly;                                !- Reporting Frequency

OS:Output:Variable,
  {80d58906-748a-4a89-b8b7-8645a5c6bc98}, !- Handle
  Output Variable 10,                     !- Name
  ,                                       !- Key Value
  District Cooling Water Energy,          !- Variable Name
  Monthly;                                !- Reporting Frequency

OS:Output:Variable,
  {1f018884-64fd-4973-9002-71a51b3d465c}, !- Handle
  Output Variable 11,                     !- Name
  ,                                       !- Key Value
  District Heating Water Energy,          !- Variable Name
  Monthly;                                !- Reporting Frequency

OS:Output:Variable,
  {df1ac23c-5b80-494b-b3f2-0c0642ae7671}, !- Handle
  Output Variable 12,                     !- Name
  ,                                       !- Key Value
  Evaporative Cooler Electricity Energy,  !- Variable Name
  Monthly;                                !- Reporting Frequency

OS:Output:Variable,
  {43dffe8f-a940-444c-a68a-4097871e187b}, !- Handle
  Output Variable 13,                     !- Name
  ,                                       !- Key Value
  Facility Net Purchased Electricity Energy, !- Variable Name
  Monthly;                                !- Reporting Frequency

OS:Output:Variable,
  {410c92b0-e5fc-48ba-bd90-c04089ca1540}, !- Handle
  Output Variable 14,                     !- Name
  ,                                       !- Key Value
  Facility Total Produced Electricity Energy, !- Variable Name
  Monthly;                                !- Reporting Frequency

OS:Output:Variable,
  {805ae078-fc44-4aa0-9403-82faf4434ad9}, !- Handle
  Output Variable 15,                     !- Name
  ,                                       !- Key Value
  Fan Electricity Energy,                 !- Variable Name
  Monthly;                                !- Reporting Frequency

OS:Output:Variable,
  {c7afa651-defb-4156-97b0-b7e340d02a2c}, !- Handle
  Output Variable 16,                     !- Name
  ,                                       !- Key Value
  Generator Produced DC Electricity Energy, !- Variable Name
  Monthly;                                !- Reporting Frequency

OS:Output:Variable,
  {80fc36e8-1137-454e-8d93-4af887fd7098}, !- Handle
  Output Variable 17,                     !- Name
  ,                                       !- Key Value
  Heating Coil Electricity Energy,        !- Variable Name
  Monthly;                                !- Reporting Frequency

OS:Output:Variable,
  {d69baec9-6138-41a4-9549-e36219fef683}, !- Handle
  Output Variable 18,                     !- Name
  ,                                       !- Key Value
  Heating Coil NaturalGas Energy,         !- Variable Name
  Monthly;                                !- Reporting Frequency

OS:Output:Variable,
  {3ea4be4b-ed29-4a5e-a3e6-e98da62df4c7}, !- Handle
  Output Variable 19,                     !- Name
  ,                                       !- Key Value
  Heating Coil Total Heating Energy,      !- Variable Name
  Monthly;                                !- Reporting Frequency

OS:Output:Variable,
  {e4c7a5c2-7b66-42c1-9fd6-490beb92caf3}, !- Handle
  Output Variable 20,                     !- Name
  ,                                       !- Key Value
  Hot_Water_Loop_Central_Air_Source_Heat_Pump Electricity Consumption, !- Variable Name
  Monthly;                                !- Reporting Frequency

OS:Output:Variable,
  {4f6dd037-372f-4d6f-9f9d-83950bb2afe9}, !- Handle
  Output Variable 21,                     !- Name
  ,                                       !- Key Value
  Humidifier Electricity Energy,          !- Variable Name
  Monthly;                                !- Reporting Frequency

OS:Output:Variable,
  {af3dbb7a-be58-40ce-a829-0a8d8c5d1ac4}, !- Handle
  Output Variable 22,                     !- Name
  ,                                       !- Key Value
  Pump Electricity Energy,                !- Variable Name
  Monthly;                                !- Reporting Frequency

OS:Output:Variable,
  {f7d11a46-2156-4b92-871b-b1cbb71d211f}, !- Handle
  Output Variable 23,                     !- Name
  ,                                       !- Key Value
  VRF Heat Pump Cooling Electricity Energy, !- Variable Name
  Monthly;                                !- Reporting Frequency

OS:Output:Variable,
  {4bee5d8d-098f-4e6a-ac25-f479e613994a}, !- Handle
  Output Variable 24,                     !- Name
  ,                                       !- Key Value
  VRF Heat Pump Crankcase Heater Electricity Energy, !- Variable Name
  Monthly;                                !- Reporting Frequency

OS:Output:Variable,
  {a8df7867-94c0-412e-b1f3-de1fd36dc3cd}, !- Handle
  Output Variable 25,                     !- Name
  ,                                       !- Key Value
  VRF Heat Pump Defrost Electricity Energy, !- Variable Name
  Monthly;                                !- Reporting Frequency

OS:Output:Variable,
  {45a5ac9e-eeee-4f9a-84c8-8dcf8367dc80}, !- Handle
  Output Variable 26,                     !- Name
  ,                                       !- Key Value
  VRF Heat Pump Heating Electricity Energy, !- Variable Name
  Monthly;                                !- Reporting Frequency

OS:Output:Variable,
  {83f8b235-8364-4976-b8e0-3eaeea216d2f}, !- Handle
  Output Variable 27,                     !- Name
  ,                                       !- Key Value
  Water Heater Electricity Energy,        !- Variable Name
  Monthly;                                !- Reporting Frequency

OS:Output:Variable,
  {93af66f2-b0c1-412c-a61e-f7424be28940}, !- Handle
  Output Variable 28,                     !- Name
  ,                                       !- Key Value
  Water Heater NaturalGas Energy,         !- Variable Name
  Monthly;                                !- Reporting Frequency

OS:Output:Variable,
  {48b0cb91-8cc9-4fb7-a895-54693c5904e2}, !- Handle
  Output Variable 29,                     !- Name
  ,                                       !- Key Value
  Water Use Equipment Heating Energy,     !- Variable Name
  Monthly;                                !- Reporting Frequency

OS:Output:Variable,
  {aeb89f5c-a11b-4442-8f30-d37a4a8aeaa9}, !- Handle
  Output Variable 30,                     !- Name
  ,                                       !- Key Value
  Zone Electric Equipment Electricity Energy, !- Variable Name
  Monthly;                                !- Reporting Frequency

OS:Output:Variable,
  {bfc8eabf-40a2-412b-9947-b7158d4338f9}, !- Handle
  Output Variable 31,                     !- Name
  ,                                       !- Key Value
  Zone Gas Equipment NaturalGas Energy,   !- Variable Name
  Monthly;                                !- Reporting Frequency

OS:Output:Variable,
  {44db7f3d-7212-4d0b-bd94-29c002878633}, !- Handle
  Output Variable 32,                     !- Name
  ,                                       !- Key Value
  Zone Ideal Loads Supply Air Total Cooling Energy, !- Variable Name
  Monthly;                                !- Reporting Frequency

OS:Output:Variable,
  {2881f3c6-92dd-406b-b2a9-4d57d9ec7bbc}, !- Handle
  Output Variable 33,                     !- Name
  ,                                       !- Key Value
  Zone Ideal Loads Supply Air Total Heating Energy, !- Variable Name
  Monthly;                                !- Reporting Frequency

OS:Output:Variable,
  {2590122d-9e79-486d-8067-73d7b1d4da75}, !- Handle
  Output Variable 34,                     !- Name
  ,                                       !- Key Value
  Zone Lights Electricity Energy,         !- Variable Name
  Monthly;                                !- Reporting Frequency

OS:Output:Variable,
  {53f793e4-e8ac-4996-9838-f6d8b7d44e49}, !- Handle
  Output Variable 35,                     !- Name
  ,                                       !- Key Value
  Zone Other Equipment Lost Heat Energy,  !- Variable Name
  Monthly;                                !- Reporting Frequency

OS:Output:Variable,
  {1d50165e-721c-45c0-a302-6aa1d78d6fc5}, !- Handle
  Output Variable 36,                     !- Name
  ,                                       !- Key Value
  Zone Other Equipment Total Heating Energy, !- Variable Name
  Monthly;                                !- Reporting Frequency

OS:Output:Variable,
  {bb9221e5-d019-4416-9722-297ef904ab96}, !- Handle
  Output Variable 37,                     !- Name
  ,                                       !- Key Value
  Zone VRF Air Terminal Cooling Electricity Energy, !- Variable Name
  Monthly;                                !- Reporting Frequency

OS:Output:Variable,
  {7264b88c-04d1-408d-bb11-b4e10aa3a311}, !- Handle
  Output Variable 38,                     !- Name
  ,                                       !- Key Value
  Zone VRF Air Terminal Heating Electricity Energy, !- Variable Name
  Monthly;                                !- Reporting Frequency

OS:Output:Variable,
  {488681f5-2b4b-424d-b9f1-b03eb6334760}, !- Handle
  Output Variable 39,                     !- Name
  ,                                       !- Key Value
  Zone Ventilation Fan Electricity Energy, !- Variable Name
  Monthly;                                !- Reporting Frequency

OS:Output:Table:SummaryReports,
  {9dd4ba6f-ea7e-4e3b-b18b-2eb355c60761}, !- Handle
  AllSummary;                             !- Report Name 1

OS:OutputControl:ReportingTolerances,
  {6854eba0-8182-40bf-bd9d-57fb8eb2c835}, !- Handle
  1.11,                                   !- Tolerance for Time Heating Setpoint Not Met {deltaC}
  1.11;                                   !- Tolerance for Time Cooling Setpoint Not Met {deltaC}

OS:YearDescription,
  {af9dc07e-c39f-486a-9262-7e375dfe0d1a}, !- Handle
  ,                                       !- Calendar Year
  Sunday;                                 !- Day of Week for Start Day

OS:RunPeriod,
  {bb80d010-aa68-4c57-a436-47db6c7cd49a}, !- Handle
  Run Period 1,                           !- Name
  1,                                      !- Begin Month
  1,                                      !- Begin Day of Month
  12,                                     !- End Month
  31,                                     !- End Day of Month
  ,                                       !- Use Weather File Holidays and Special Days
  ,                                       !- Use Weather File Daylight Saving Period
  ,                                       !- Apply Weekend Holiday Rule
  ,                                       !- Use Weather File Rain Indicators
  ,                                       !- Use Weather File Snow Indicators
  ;                                       !- Number of Times Runperiod to be Repeated

OS:Sizing:Parameters,
  {a287f699-0786-48bb-92b7-feafb6f51a20}, !- Handle
  1.25,                                   !- Heating Sizing Factor
  1.15;                                   !- Cooling Sizing Factor

OS:Building,
  {c1be77a8-d7e8-49b1-a360-d641fa226ade}, !- Handle
  Building 1,                             !- Name
  ,                                       !- Building Sector Type
  0,                                      !- North Axis {deg}
  ,                                       !- Nominal Floor to Floor Height {m}
  ,                                       !- Space Type Name
  {f5593091-b6f0-47e3-9386-82c60953a16c}, !- Default Construction Set Name
  ,                                       !- Default Schedule Set Name
  ,                                       !- Standards Number of Stories
  ,                                       !- Standards Number of Above Ground Stories
  ,                                       !- Standards Template
  MediumOffice;                           !- Standards Building Type

OS:SimulationControl,
  {5184122c-8da8-4238-a699-b8b2c8819263}, !- Handle
  Yes,                                    !- Do Zone Sizing Calculation
  Yes,                                    !- Do System Sizing Calculation
  Yes,                                    !- Do Plant Sizing Calculation
  No,                                     !- Run Simulation for Sizing Periods
  Yes,                                    !- Run Simulation for Weather File Run Periods
  ,                                       !- Loads Convergence Tolerance Value {W}
  ,                                       !- Temperature Convergence Tolerance Value {deltaC}
  FullExteriorWithReflections;            !- Solar Distribution

OS:ShadowCalculation,
  {14da3645-ca36-473c-8816-95f72b0bc1b5}, !- Handle
  PolygonClipping,                        !- Shading Calculation Method
  Periodic,                               !- Shading Calculation Update Frequency Method
  30,                                     !- Shading Calculation Update Frequency
  15000,                                  !- Maximum Figures in Shadow Overlap Calculations
  ,                                       !- Polygon Clipping Algorithm
  512,                                    !- Pixel Counting Resolution
  ,                                       !- Sky Diffuse Modeling Algorithm
  No,                                     !- Output External Shading Calculation Results
  No,                                     !- Disable Self-Shading Within Shading Zone Groups
  No;                                     !- Disable Self-Shading From Shading Zone Groups to Other Zones

OS:Timestep,
  {c5abd923-40a4-431c-9f08-ce6c65ee2de9}, !- Handle
  6;                                      !- Number of Timesteps per Hour

OS:Site,
  {70189aa1-8204-43b8-ba41-d422f2a2f05c}, !- Handle
  Site 1,                                 !- Name
  ,                                       !- Latitude {deg}
  ,                                       !- Longitude {deg}
  ,                                       !- Time Zone {hr}
  ,                                       !- Elevation {m}
  City;                                   !- Terrain

OS:Site:WaterMainsTemperature,
  {7b6a185b-e74d-442b-af65-c3fa9d23fc27}, !- Handle
  CorrelationFromWeatherFile;             !- Calculation Method

OS:Schedule:Constant,
  {1d7bb693-cf70-447a-88fc-887933912f92}, !- Handle
  Always On Discrete,                     !- Name
  {c5ca1342-bffb-4899-ab44-510e58c2558c}, !- Schedule Type Limits Name
  1;                                      !- Value

OS:ScheduleTypeLimits,
  {c5ca1342-bffb-4899-ab44-510e58c2558c}, !- Handle
  OnOff,                                  !- Name
  0,                                      !- Lower Limit Value
  1,                                      !- Upper Limit Value
  Discrete,                               !- Numeric Type
  Availability;                           !- Unit Type

OS:Schedule:Constant,
  {d90bdcf7-d0aa-47be-944f-7d7842508445}, !- Handle
  Always Off Discrete,                    !- Name
  {183b6640-1b84-4ab4-8b5c-fc1c25f56c33}, !- Schedule Type Limits Name
  0;                                      !- Value

OS:ScheduleTypeLimits,
  {183b6640-1b84-4ab4-8b5c-fc1c25f56c33}, !- Handle
  {b821fa3b-4f86-4c73-bd28-ddc4686a19a9}, !- Name
  0,                                      !- Lower Limit Value
  1,                                      !- Upper Limit Value
  Discrete,                               !- Numeric Type
  Availability;                           !- Unit Type

OS:Schedule:Constant,
  {880e0c20-bde2-4720-a7a0-eee97599af7e}, !- Handle
  Always On Continuous,                   !- Name
  {8e800876-48bc-4cc0-bfa1-9c03e688dda1}, !- Schedule Type Limits Name
  1;                                      !- Value

OS:ScheduleTypeLimits,
  {8e800876-48bc-4cc0-bfa1-9c03e688dda1}, !- Handle
  Fractional,                             !- Name
  0,                                      !- Lower Limit Value
  1,                                      !- Upper Limit Value
  Continuous,                             !- Numeric Type
  ;                                       !- Unit Type

OS:Schedule:Ruleset,
  {a01f8eb7-199f-4bd6-a339-102673956a0f}, !- Handle
  Always On,                              !- Name
  {8e800876-48bc-4cc0-bfa1-9c03e688dda1}, !- Schedule Type Limits Name
  {bd2f16a9-1736-4b6f-acfe-824f561a559a}; !- Default Day Schedule Name

OS:Schedule:Day,
  {bd2f16a9-1736-4b6f-acfe-824f561a559a}, !- Handle
  Always On_Day Schedule,                 !- Name
  {8e800876-48bc-4cc0-bfa1-9c03e688dda1}, !- Schedule Type Limits Name
  ,                                       !- Interpolate to Timestep
  24,                                     !- Hour 1
  0,                                      !- Minute 1
  1;                                      !- Value Until Time 1

OS:Material,
  {9300b68a-66b8-4c98-b34f-ce0e7e8ac210}, !- Handle
  Generic Gypsum Board,                   !- Name
  MediumSmooth,                           !- Roughness
  0.0127,                                 !- Thickness {m}
  0.16,                                   !- Conductivity {W/m-K}
  800,                                    !- Density {kg/m3}
  1090,                                   !- Specific Heat {J/kg-K}
  0.9,                                    !- Thermal Absorptance
  0.5,                                    !- Solar Absorptance
  0.5;                                    !- Visible Absorptance

OS:WindowMaterial:Gas,
  {72985fd8-d7c6-4b78-a807-8be92ab7529c}, !- Handle
  Generic Window Air Gap,                 !- Name
  Air,                                    !- Gas Type
  0.0127;                                 !- Thickness {m}

OS:Material,
  {826548d9-3b57-4290-8460-32767d7acf7e}, !- Handle
  Generic Wall Air Gap,                   !- Name
  Smooth,                                 !- Roughness
  0.1,                                    !- Thickness {m}
  0.667,                                  !- Conductivity {W/m-K}
  1.28,                                   !- Density {kg/m3}
  1000,                                   !- Specific Heat {J/kg-K}
  0.9,                                    !- Thermal Absorptance
  0.7,                                    !- Solar Absorptance
  0.7;                                    !- Visible Absorptance

OS:Material,
  {5b1b22cb-53c7-4b92-9666-1be366284e57}, !- Handle
  Generic Ceiling Air Gap,                !- Name
  Smooth,                                 !- Roughness
  0.1,                                    !- Thickness {m}
  0.556,                                  !- Conductivity {W/m-K}
  1.28,                                   !- Density {kg/m3}
  1000,                                   !- Specific Heat {J/kg-K}
  0.9,                                    !- Thermal Absorptance
  0.7,                                    !- Solar Absorptance
  0.7;                                    !- Visible Absorptance

OS:Material,
  {66983cfd-52c2-47ed-9586-07d5a2601337}, !- Handle
  Generic Painted Metal,                  !- Name
  Smooth,                                 !- Roughness
  0.0015,                                 !- Thickness {m}
  45,                                     !- Conductivity {W/m-K}
  7690,                                   !- Density {kg/m3}
  410,                                    !- Specific Heat {J/kg-K}
  0.9,                                    !- Thermal Absorptance
  0.5,                                    !- Solar Absorptance
  0.5;                                    !- Visible Absorptance

OS:WindowMaterial:Glazing,
  {198f7954-ae33-4497-a69c-486242f0074c}, !- Handle
  Generic Clear Glass,                    !- Name
  SpectralAverage,                        !- Optical Data Type
  ,                                       !- Window Glass Spectral Data Set Name
  0.006,                                  !- Thickness {m}
  0.77,                                   !- Solar Transmittance at Normal Incidence
  0.07,                                   !- Front Side Solar Reflectance at Normal Incidence
  0.07,                                   !- Back Side Solar Reflectance at Normal Incidence
  0.88,                                   !- Visible Transmittance at Normal Incidence
  0.08,                                   !- Front Side Visible Reflectance at Normal Incidence
  0.08,                                   !- Back Side Visible Reflectance at Normal Incidence
  0,                                      !- Infrared Transmittance at Normal Incidence
  0.84,                                   !- Front Side Infrared Hemispherical Emissivity
  0.84,                                   !- Back Side Infrared Hemispherical Emissivity
  1,                                      !- Conductivity {W/m-K}
  1,                                      !- Dirt Correction Factor for Solar and Visible Transmittance
  No;                                     !- Solar Diffusing

OS:Material,
  {6a51fce1-88f7-40d9-95a1-774dec5b034f}, !- Handle
  Generic 25mm Insulation,                !- Name
  MediumRough,                            !- Roughness
  0.025,                                  !- Thickness {m}
  0.03,                                   !- Conductivity {W/m-K}
  43,                                     !- Density {kg/m3}
  1210,                                   !- Specific Heat {J/kg-K}
  0.9,                                    !- Thermal Absorptance
  0.7,                                    !- Solar Absorptance
  0.7;                                    !- Visible Absorptance

OS:Material,
  {aafd3ef1-bb92-4e4f-8768-bc48749d9024}, !- Handle
  Generic 50mm Insulation,                !- Name
  MediumRough,                            !- Roughness
  0.05,                                   !- Thickness {m}
  0.03,                                   !- Conductivity {W/m-K}
  43,                                     !- Density {kg/m3}
  1210,                                   !- Specific Heat {J/kg-K}
  0.9,                                    !- Thermal Absorptance
  0.7,                                    !- Solar Absorptance
  0.7;                                    !- Visible Absorptance

OS:Material,
  {accf647b-a38d-46af-9eff-b53cdcae5aef}, !- Handle
  Generic LW Concrete,                    !- Name
  MediumRough,                            !- Roughness
  0.1,                                    !- Thickness {m}
  0.53,                                   !- Conductivity {W/m-K}
  1280,                                   !- Density {kg/m3}
  840,                                    !- Specific Heat {J/kg-K}
  0.9,                                    !- Thermal Absorptance
  0.8,                                    !- Solar Absorptance
  0.8;                                    !- Visible Absorptance

OS:Material,
  {bd6f955b-b97b-4aec-8d88-a6f2501c7b6f}, !- Handle
  Generic Acoustic Tile,                  !- Name
  MediumSmooth,                           !- Roughness
  0.02,                                   !- Thickness {m}
  0.06,                                   !- Conductivity {W/m-K}
  368,                                    !- Density {kg/m3}
  590,                                    !- Specific Heat {J/kg-K}
  0.9,                                    !- Thermal Absorptance
  0.2,                                    !- Solar Absorptance
  0.2;                                    !- Visible Absorptance

OS:Material,
  {af26b328-2b30-4e34-86d2-2e2c62d39e3d}, !- Handle
  Generic Brick,                          !- Name
  MediumRough,                            !- Roughness
  0.1,                                    !- Thickness {m}
  0.9,                                    !- Conductivity {W/m-K}
  1920,                                   !- Density {kg/m3}
  790,                                    !- Specific Heat {J/kg-K}
  0.9,                                    !- Thermal Absorptance
  0.65,                                   !- Solar Absorptance
  0.65;                                   !- Visible Absorptance

OS:Material,
  {05b5b907-a52d-4596-9092-b2ab9ea729f3}, !- Handle
  Generic Roof Membrane,                  !- Name
  MediumRough,                            !- Roughness
  0.01,                                   !- Thickness {m}
  0.16,                                   !- Conductivity {W/m-K}
  1120,                                   !- Density {kg/m3}
  1460,                                   !- Specific Heat {J/kg-K}
  0.9,                                    !- Thermal Absorptance
  0.65,                                   !- Solar Absorptance
  0.65;                                   !- Visible Absorptance

OS:Material,
  {a1aee104-ae14-49ce-80e7-d6597cf41a45}, !- Handle
  Generic HW Concrete,                    !- Name
  MediumRough,                            !- Roughness
  0.2,                                    !- Thickness {m}
  1.95,                                   !- Conductivity {W/m-K}
  2240,                                   !- Density {kg/m3}
  900,                                    !- Specific Heat {J/kg-K}
  0.9,                                    !- Thermal Absorptance
  0.8,                                    !- Solar Absorptance
  0.8;                                    !- Visible Absorptance

OS:WindowMaterial:Glazing,
  {49f9349b-fee7-4a7a-a620-9a73867ee108}, !- Handle
  Generic Low-e Glass,                    !- Name
  SpectralAverage,                        !- Optical Data Type
  ,                                       !- Window Glass Spectral Data Set Name
  0.006,                                  !- Thickness {m}
  0.45,                                   !- Solar Transmittance at Normal Incidence
  0.36,                                   !- Front Side Solar Reflectance at Normal Incidence
  0.36,                                   !- Back Side Solar Reflectance at Normal Incidence
  0.71,                                   !- Visible Transmittance at Normal Incidence
  0.21,                                   !- Front Side Visible Reflectance at Normal Incidence
  0.21,                                   !- Back Side Visible Reflectance at Normal Incidence
  0,                                      !- Infrared Transmittance at Normal Incidence
  0.84,                                   !- Front Side Infrared Hemispherical Emissivity
  0.047,                                  !- Back Side Infrared Hemispherical Emissivity
  1,                                      !- Conductivity {W/m-K}
  1,                                      !- Dirt Correction Factor for Solar and Visible Transmittance
  No;                                     !- Solar Diffusing

OS:Material,
  {5bee0076-ff33-439f-b279-111206d5a9ec}, !- Handle
  Generic 25mm Wood,                      !- Name
  MediumSmooth,                           !- Roughness